Test System/SmallSystem_case.raw
0,   100.00, 33, 0, 0, 60.00     / PSS(R)E 33 RAW created by rawd33  THU, SEP 11 2025  22:38
THIS IS A SYNTHETIC ELECTRIC GRID DESIGNED BY RESEARCHERS AT
PROGRAM
110001,'EDNA 1 1    ', 138.0000,1,   7,  71,   7,1.03709,  -4.2424,1.10000,0.90000,1.10000,0.90000
110002,'EDNA 1 2    ',  13.8000,1,   7,  71,   7,1.03709,  -4.2424,1.10000,0.90000,1.10000,0.90000
110003,'EDNA 1 3    ',  13.8000,1,   7,  71,   7,1.03709,  -4.2424,1.10000,0.90000,1.10000,0.90000
110004,'EDNA 1 4    ',   1.0000,1,   7,  71,   7,1.03709,  -4.2424,1.10000,0.90000,1.10000,0.90000
110005,'LANE CITY ~1', 138.0000,1,   7,  71,   7,1.02186, -11.3845,1.10000,0.90000,1.10000,0.90000
110006,'LANE CITY ~2',  13.8000,1,   7,  71,   7,1.02186, -11.3845,1.10000,0.90000,1.10000,0.90000
110007,'LANE CITY ~3',  13.8000,1,   7,  71,   7,1.02186, -11.3845,1.10000,0.90000,1.10000,0.90000
110008,'LANE CITY ~4',   1.0000,1,   7,  71,   7,1.02186, -11.3845,1.10000,0.90000,1.10000,0.90000
110009,'MATAGORDA ~1', 138.0000,1,   7,  71,   7,1.02860,  -3.5588,1.10000,0.90000,1.10000,0.90000
110010,'MATAGORDA ~2',  13.8000,1,   7,  71,   7,1.02860,  -3.5588,1.10000,0.90000,1.10000,0.90000
110011,'MATAGORDA ~3',  13.8000,1,   7,  71,   7,1.02860,  -3.5588,1.10000,0.90000,1.10000,0.90000
110012,'MATAGORDA ~4',   1.0000,1,   7,  71,   7,1.02860,  -3.5588,1.10000,0.90000,1.10000,0.90000
110013,'HUNGERFORD~1', 138.0000,1,   7,  71,   7,1.01156, -12.6814,1.10000,0.90000,1.10000,0.90000
110014,'HUNGERFORD~2',  13.8000,1,   7,  71,   7,1.01156, -12.6814,1.10000,0.90000,1.10000,0.90000
110015,'HUNGERFORD~3',  13.8000,1,   7,  71,   7,1.01156, -12.6814,1.10000,0.90000,1.10000,0.90000
110016,'HUNGERFORD~4',   1.0000,1,   7,  71,   7,1.01156, -12.6814,1.10000,0.90000,1.10000,0.90000
110017,'EAST BERNA~1', 138.0000,1,   7,  71,   7,1.02644, -16.7384,1.10000,0.90000,1.10000,0.90000
110018,'EAST BERNA~2',  13.8000,1,   7,  71,   7,1.02644, -16.7384,1.10000,0.90000,1.10000,0.90000
110019,'EAST BERNA~3',  13.8000,1,   7,  71,   7,1.02644, -16.7384,1.10000,0.90000,1.10000,0.90000
110020,'EAST BERNA~4',   1.0000,1,   7,  71,   7,1.02644, -16.7384,1.10000,0.90000,1.10000,0.90000
110021,'EL CAMPO 1 1', 138.0000,1,   7,  71,   7,1.02517,  -6.8288,1.10000,0.90000,1.10000,0.90000
110022,'EL CAMPO 1 2',  22.0000,1,   7,  71,   7,1.02517,  -6.8288,1.10000,0.90000,1.10000,0.90000
110023,'EL CAMPO 1 3',  22.0000,1,   7,  71,   7,1.02517,  -6.8288,1.10000,0.90000,1.10000,0.90000
110024,'EL CAMPO 1 4',   1.0000,1,   7,  71,   7,1.02517,  -6.8288,1.10000,0.90000,1.10000,0.90000
110025,'EL CAMPO 2 1', 138.0000,1,   7,  71,   7,1.02607,  -6.8317,1.10000,0.90000,1.10000,0.90000
110026,'EL CAMPO 2 2',  13.8000,1,   7,  71,   7,1.02607,  -6.8317,1.10000,0.90000,1.10000,0.90000
110027,'EL CAMPO 2 3',  13.8000,1,   7,  71,   7,1.02607,  -6.8317,1.10000,0.90000,1.10000,0.90000
110028,'EL CAMPO 2 4',   1.0000,1,   7,  71,   7,1.02607,  -6.8317,1.10000,0.90000,1.10000,0.90000
110029,'WHARTON 1 1 ', 138.0000,1,   7,  71,   7,1.02792,  -8.7228,1.10000,0.90000,1.10000,0.90000
110030,'WHARTON 1 2 ',  13.8000,1,   7,  71,   7,1.02792,  -8.7228,1.10000,0.90000,1.10000,0.90000
110031,'WHARTON 1 3 ',  13.8000,1,   7,  71,   7,1.02792,  -8.7228,1.10000,0.90000,1.10000,0.90000
110032,'WHARTON 1 4 ',   1.0000,1,   7,  71,   7,1.02792,  -8.7228,1.10000,0.90000,1.10000,0.90000
110033,'CEDAR LANE~1', 138.0000,1,   7,  71,   7,1.01648, -10.4397,1.10000,0.90000,1.10000,0.90000
110034,'CEDAR LANE~2',  13.8000,1,   7,  71,   7,1.01648, -10.4397,1.10000,0.90000,1.10000,0.90000
110035,'CEDAR LANE~3',  13.8000,1,   7,  71,   7,1.01648, -10.4397,1.10000,0.90000,1.10000,0.90000
110036,'CEDAR LANE~4',   1.0000,1,   7,  71,   7,1.01648, -10.4397,1.10000,0.90000,1.10000,0.90000
110037,'NADA 1 1    ', 138.0000,1,   7,  71,   7,1.03246,  -7.9271,1.10000,0.90000,1.10000,0.90000
110038,'NADA 1 2    ',  13.8000,1,   7,  71,   7,1.03246,  -7.9271,1.10000,0.90000,1.10000,0.90000
110039,'NADA 1 3    ',  13.8000,1,   7,  71,   7,1.03246,  -7.9271,1.10000,0.90000,1.10000,0.90000
110040,'NADA 1 4    ',   1.0000,1,   7,  71,   7,1.03246,  -7.9271,1.10000,0.90000,1.10000,0.90000
110041,'EGYPT 1 1   ', 138.0000,1,   7,  71,   7,1.03060,  -5.8984,1.10000,0.90000,1.10000,0.90000
110042,'EGYPT 1 2   ',  24.0000,1,   7,  71,   7,1.03060,  -5.8984,1.10000,0.90000,1.10000,0.90000
110043,'EGYPT 1 3   ',  24.0000,1,   7,  71,   7,1.03060,  -5.8984,1.10000,0.90000,1.10000,0.90000
110044,'EGYPT 1 4   ',   1.0000,1,   7,  71,   7,1.03060,  -5.8984,1.10000,0.90000,1.10000,0.90000
110045,'LOUISE 1 1  ', 138.0000,1,   7,  71,   7,1.02873,  -8.1891,1.10000,0.90000,1.10000,0.90000
110046,'LOUISE 1 2  ',  13.8000,1,   7,  71,   7,1.02873,  -8.1891,1.10000,0.90000,1.10000,0.90000
110047,'LOUISE 1 3  ',  13.8000,1,   7,  71,   7,1.02873,  -8.1891,1.10000,0.90000,1.10000,0.90000
110048,'LOUISE 1 4  ',   1.0000,1,   7,  71,   7,1.02873,  -8.1891,1.10000,0.90000,1.10000,0.90000
110049,'GANADO 1 1  ', 138.0000,1,   7,  71,   7,1.02468,  -5.8852,1.10000,0.90000,1.10000,0.90000
110050,'GANADO 1 2  ',  18.0000,1,   7,  71,   7,1.02468,  -5.8852,1.10000,0.90000,1.10000,0.90000
110051,'GANADO 1 3  ',  18.0000,1,   7,  71,   7,1.02468,  -5.8852,1.10000,0.90000,1.10000,0.90000
110052,'GANADO 1 4  ',   1.0000,1,   7,  71,   7,1.02468,  -5.8852,1.10000,0.90000,1.10000,0.90000
110053,'LOUISE 2 1  ', 138.0000,1,   7,  71,   7,1.02614,  -6.4155,1.10000,0.90000,1.10000,0.90000
110054,'LOUISE 2 2  ',  13.8000,1,   7,  71,   7,1.02614,  -6.4155,1.10000,0.90000,1.10000,0.90000
110055,'LOUISE 2 3  ',  13.8000,1,   7,  71,   7,1.02614,  -6.4155,1.10000,0.90000,1.10000,0.90000
110056,'LOUISE 2 4  ',   1.0000,1,   7,  71,   7,1.02614,  -6.4155,1.10000,0.90000,1.10000,0.90000
110057,'LOUISE 3 1  ', 138.0000,1,   7,  71,   7,1.02739,  -7.2231,1.10000,0.90000,1.10000,0.90000
110058,'LOUISE 3 2  ',  24.0000,1,   7,  71,   7,1.02739,  -7.2231,1.10000,0.90000,1.10000,0.90000
110059,'LOUISE 3 3  ',  24.0000,1,   7,  71,   7,1.02739,  -7.2231,1.10000,0.90000,1.10000,0.90000
110060,'LOUISE 3 4  ',   1.0000,1,   7,  71,   7,1.02739,  -7.2231,1.10000,0.90000,1.10000,0.90000
110061,'NADA 2 1    ', 138.0000,1,   7,  71,   7,1.02771,  -6.5305,1.10000,0.90000,1.10000,0.90000
110062,'NADA 2 2    ',  18.0000,1,   7,  71,   7,1.02771,  -6.5305,1.10000,0.90000,1.10000,0.90000
110063,'NADA 2 3    ',  18.0000,1,   7,  71,   7,1.02771,  -6.5305,1.10000,0.90000,1.10000,0.90000
110064,'NADA 2 4    ',   1.0000,1,   7,  71,   7,1.02771,  -6.5305,1.10000,0.90000,1.10000,0.90000
110065,'KENDLETON ~1', 138.0000,1,   7,  71,   7,1.02309, -12.1087,1.10000,0.90000,1.10000,0.90000
110066,'KENDLETON ~2',  24.0000,1,   7,  71,   7,1.02309, -12.1087,1.10000,0.90000,1.10000,0.90000
110067,'KENDLETON ~3',  24.0000,1,   7,  71,   7,1.02309, -12.1087,1.10000,0.90000,1.10000,0.90000
110068,'KENDLETON ~4',   1.0000,1,   7,  71,   7,1.02309, -12.1087,1.10000,0.90000,1.10000,0.90000
110069,'PLEDGER 1 1 ', 138.0000,1,   7,  71,   7,1.02181,  -9.6933,1.10000,0.90000,1.10000,0.90000
110070,'PLEDGER 1 2 ',  13.8000,1,   7,  71,   7,1.02181,  -9.6933,1.10000,0.90000,1.10000,0.90000
110071,'PLEDGER 1 3 ',  13.8000,1,   7,  71,   7,1.02181,  -9.6933,1.10000,0.90000,1.10000,0.90000
110072,'PLEDGER 1 4 ',   1.0000,1,   7,  71,   7,1.02181,  -9.6933,1.10000,0.90000,1.10000,0.90000
110073,'DANEVANG 1 1', 138.0000,1,   7,  71,   7,1.02560,  -7.1710,1.10000,0.90000,1.10000,0.90000
110074,'DANEVANG 1 2',  13.8000,1,   7,  71,   7,1.02560,  -7.1710,1.10000,0.90000,1.10000,0.90000
110075,'DANEVANG 1 3',  13.8000,1,   7,  71,   7,1.02560,  -7.1710,1.10000,0.90000,1.10000,0.90000
110076,'DANEVANG 1 4',   1.0000,1,   7,  71,   7,1.02560,  -7.1710,1.10000,0.90000,1.10000,0.90000
110077,'DANEVANG 2 1', 138.0000,1,   7,  71,   7,1.02176,  -8.0173,1.10000,0.90000,1.10000,0.90000
110078,'DANEVANG 2 2',  18.0000,1,   7,  71,   7,1.02176,  -8.0173,1.10000,0.90000,1.10000,0.90000
110079,'DANEVANG 2 3',  18.0000,1,   7,  71,   7,1.02176,  -8.0173,1.10000,0.90000,1.10000,0.90000
110080,'DANEVANG 2 4',   1.0000,1,   7,  71,   7,1.02176,  -8.0173,1.10000,0.90000,1.10000,0.90000
110081,'ELMATON 1 1 ', 138.0000,1,   7,  71,   7,1.01461,  -4.1395,1.10000,0.90000,1.10000,0.90000
110082,'ELMATON 1 2 ',  24.0000,1,   7,  71,   7,1.01461,  -4.1395,1.10000,0.90000,1.10000,0.90000
110083,'ELMATON 1 3 ',  24.0000,1,   7,  71,   7,1.01461,  -4.1395,1.10000,0.90000,1.10000,0.90000
110084,'ELMATON 1 4 ',   1.0000,1,   7,  71,   7,1.01461,  -4.1395,1.10000,0.90000,1.10000,0.90000
110085,'BAY CITY 1 1', 138.0000,1,   7,  71,   7,1.02839,  -9.3200,1.10000,0.90000,1.10000,0.90000
110086,'BAY CITY 1 2',  18.0000,1,   7,  71,   7,1.02839,  -9.3200,1.10000,0.90000,1.10000,0.90000
110087,'BAY CITY 1 3',  18.0000,1,   7,  71,   7,1.02839,  -9.3200,1.10000,0.90000,1.10000,0.90000
110088,'BAY CITY 1 4',   1.0000,1,   7,  71,   7,1.02839,  -9.3200,1.10000,0.90000,1.10000,0.90000
110089,'PALACIOS 1 1', 138.0000,1,   7,  71,   7,1.02394,  -2.3641,1.10000,0.90000,1.10000,0.90000
110090,'PALACIOS 1 2',  18.0000,1,   7,  71,   7,1.02394,  -2.3641,1.10000,0.90000,1.10000,0.90000
110091,'PALACIOS 1 3',  18.0000,1,   7,  71,   7,1.02394,  -2.3641,1.10000,0.90000,1.10000,0.90000
110092,'PALACIOS 1 4',   1.0000,1,   7,  71,   7,1.02394,  -2.3641,1.10000,0.90000,1.10000,0.90000
110093,'MIDFIELD 1 1', 138.0000,1,   7,  71,   7,1.00954,  -3.5363,1.10000,0.90000,1.10000,0.90000
110094,'MIDFIELD 1 2',  13.8000,1,   7,  71,   7,0.96506,  -6.9738,1.10000,0.90000,1.10000,0.90000
110095,'MIDFIELD 1 3',  13.8000,1,   7,  71,   7,0.96506,  -6.9738,1.10000,0.90000,1.10000,0.90000
110096,'MIDFIELD 1 4',   1.0000,1,   7,  71,   7,0.96506,  -6.9738,1.10000,0.90000,1.10000,0.90000
110097,'ELMATON 2 1 ', 138.0000,1,   7,  71,   7,1.01813,  -4.5315,1.10000,0.90000,1.10000,0.90000
110098,'ELMATON 2 2 ',  13.8000,1,   7,  71,   7,1.01813,  -4.5315,1.10000,0.90000,1.10000,0.90000
110099,'ELMATON 2 3 ',  13.8000,1,   7,  71,   7,1.01813,  -4.5315,1.10000,0.90000,1.10000,0.90000
110100,'ELMATON 2 4 ',   1.0000,1,   7,  71,   7,1.01813,  -4.5315,1.10000,0.90000,1.10000,0.90000
110101,'PALACIOS 2 1', 138.0000,1,   7,  71,   7,1.03372,  -1.6393,1.10000,0.90000,1.10000,0.90000
110102,'PALACIOS 2 2',  13.8000,1,   7,  71,   7,1.03372,  -1.6393,1.10000,0.90000,1.10000,0.90000
110103,'PALACIOS 2 3',  13.8000,1,   7,  71,   7,1.03372,  -1.6393,1.10000,0.90000,1.10000,0.90000
110104,'PALACIOS 2 4',   1.0000,1,   7,  71,   7,1.03372,  -1.6393,1.10000,0.90000,1.10000,0.90000
110105,'MATAGORDA ~5', 138.0000,1,   7,  71,   7,1.02797,  -3.3256,1.10000,0.90000,1.10000,0.90000
110106,'MATAGORDA ~6',  18.0000,1,   7,  71,   7,1.02797,  -3.3256,1.10000,0.90000,1.10000,0.90000
110107,'MATAGORDA ~7',  18.0000,1,   7,  71,   7,1.02797,  -3.3256,1.10000,0.90000,1.10000,0.90000
110108,'MATAGORDA ~8',   1.0000,1,   7,  71,   7,1.02797,  -3.3256,1.10000,0.90000,1.10000,0.90000
110109,'SWEENY 1 1  ', 138.0000,1,   7,  71,   7,1.03568, -10.6329,1.10000,0.90000,1.10000,0.90000
110110,'SWEENY 1 2  ',  13.8000,1,   7,  71,   7,1.03568, -10.6329,1.10000,0.90000,1.10000,0.90000
110111,'SWEENY 1 3  ',  13.8000,1,   7,  71,   7,1.03568, -10.6329,1.10000,0.90000,1.10000,0.90000
110112,'SWEENY 1 4  ',   1.0000,1,   7,  71,   7,1.03568, -10.6329,1.10000,0.90000,1.10000,0.90000
110113,'EDNA 2 1    ', 138.0000,1,   7,  71,   7,1.03620,  -3.6927,1.10000,0.90000,1.10000,0.90000
110114,'EDNA 2 2    ',  18.0000,1,   7,  71,   7,1.03620,  -3.6927,1.10000,0.90000,1.10000,0.90000
110115,'EDNA 2 3    ',  18.0000,1,   7,  71,   7,1.03620,  -3.6927,1.10000,0.90000,1.10000,0.90000
110116,'EDNA 2 4    ',   1.0000,1,   7,  71,   7,1.03620,  -3.6927,1.10000,0.90000,1.10000,0.90000
110117,'MARKHAM 1 1 ', 138.0000,1,   7,  71,   7,1.01379,  -4.6545,1.10000,0.90000,1.10000,0.90000
110118,'ALTAIR 1 1  ', 138.0000,1,   7,  71,   7,1.02814,  -8.9766,1.10000,0.90000,1.10000,0.90000
110119,'CEDAR LANE~5', 138.0000,1,   7,  71,   7,1.01640,  -8.7044,1.10000,0.90000,1.10000,0.90000
110120,'BAY CITY 2 1', 138.0000,1,   7,  71,   7,1.02475,  -5.8686,1.10000,0.90000,1.10000,0.90000
110121,'WADSWORTH ~1', 138.0000,1,   7,  71,   7,1.02214,  -6.3088,1.10000,0.90000,1.10000,0.90000
110122,'LA WARD 1 1 ', 138.0000,1,   7,  71,   7,1.02421,  -0.7464,1.10000,0.90000,1.10000,0.90000
110123,'HUNGERFORD~5', 138.0000,1,   7,  71,   7,1.00615, -13.4232,1.10000,0.90000,1.10000,0.90000
110124,'GARWOOD 1 1 ', 138.0000,1,   7,  71,   7,1.03781,  -7.9439,1.10000,0.90000,1.10000,0.90000
110125,'LANE CITY ~5', 138.0000,1,   7,  71,   7,1.02252,  -9.8564,1.10000,0.90000,1.10000,0.90000
110126,'BAY CITY 3 1', 345.0000,1,   7,  71,   7,1.03530,  -2.4440,1.10000,0.90000,1.10000,0.90000
110127,'BAY CITY 3 2', 138.0000,1,   7,  71,   7,1.02695,  -5.3692,1.10000,0.90000,1.10000,0.90000
110128,'EL CAMPO 3 1', 138.0000,1,   7,  71,   7,1.02445,  -7.1969,1.10000,0.90000,1.10000,0.90000
110129,'BROOKSHIRE~1', 138.0000,1,   7,  71,   7,1.03048, -19.0116,1.10000,0.90000,1.10000,0.90000
110130,'EAGLE LAKE~1', 138.0000,1,   7,  71,   7,1.02279, -10.7476,1.10000,0.90000,1.10000,0.90000
110131,'SEALY 1 1   ', 138.0000,1,   7,  71,   7,1.03520, -16.1641,1.10000,0.90000,1.10000,0.90000
110132,'WHARTON 2 1 ', 138.0000,1,   7,  71,   7,1.02084, -11.4189,1.10000,0.90000,1.10000,0.90000
110133,'GANADO 2 1  ', 138.0000,1,   7,  71,   7,1.02422,  -4.9162,1.10000,0.90000,1.10000,0.90000
110134,'EL CAMPO 4 1', 138.0000,1,   7,  71,   7,1.02483,  -7.0773,1.10000,0.90000,1.10000,0.90000
110135,'MARKHAM 2 1 ', 138.0000,1,   7,  71,   7,1.01994,  -7.7755,1.10000,0.90000,1.10000,0.90000
110136,'PALACIOS 3 1', 138.0000,1,   7,  71,   7,1.02465,  -1.2008,1.10000,0.90000,1.10000,0.90000
110137,'PATTISON 1 1', 138.0000,1,   7,  71,   7,1.02883, -16.8949,1.10000,0.90000,1.10000,0.90000
110138,'BAY CITY 4 1', 138.0000,1,   7,  71,   7,1.01909,  -7.2071,1.10000,0.90000,1.10000,0.90000
110139,'EDNA 3 1    ', 138.0000,1,   7,  71,   7,1.03554,  -3.2344,1.10000,0.90000,1.10000,0.90000
110140,'BROOKSHIRE~2', 138.0000,1,   7,  71,   7,1.02964, -17.4922,1.10000,0.90000,1.10000,0.90000
110141,'SAN FELIPE~1', 138.0000,1,   7,  71,   7,1.03424, -17.6135,1.10000,0.90000,1.10000,0.90000
110142,'BROOKSHIRE~3', 138.0000,1,   7,  71,   7,1.02357, -18.7748,1.10000,0.90000,1.10000,0.90000
110143,'SEALY 2 1   ', 138.0000,1,   7,  71,   7,1.03392, -17.5724,1.10000,0.90000,1.10000,0.90000
110144,'SAN FELIPE~2', 138.0000,1,   7,  71,   7,1.03610, -18.4653,1.10000,0.90000,1.10000,0.90000
110145,'PRAIRIE VI~1', 138.0000,1,   7,  71,   7,1.01837, -14.3353,1.10000,0.90000,1.10000,0.90000
110146,'LISSIE 1 1  ', 138.0000,1,   7,  71,   7,1.02407, -14.1070,1.10000,0.90000,1.10000,0.90000
110147,'BROOKSHIRE~4', 138.0000,1,   7,  71,   7,1.02637, -19.3367,1.10000,0.90000,1.10000,0.90000
110148,'BROOKSHIRE~5', 138.0000,1,   7,  71,   7,1.02736, -17.3226,1.10000,0.90000,1.10000,0.90000
110149,'BROOKSHIRE~6', 138.0000,1,   7,  71,   7,1.03210, -17.5958,1.10000,0.90000,1.10000,0.90000
110150,'HOCKLEY 1 1 ', 138.0000,1,   7,  71,   7,1.03073, -18.8531,1.10000,0.90000,1.10000,0.90000
110151,'EAGLE LAKE~2', 138.0000,1,   7,  71,   7,1.02110, -11.1309,1.10000,0.90000,1.10000,0.90000
110152,'BROOKSHIRE~7', 138.0000,1,   7,  71,   7,1.02832, -17.1114,1.10000,0.90000,1.10000,0.90000
110153,'HOCKLEY 2 1 ', 138.0000,1,   7,  71,   7,1.02654, -19.6508,1.10000,0.90000,1.10000,0.90000
110154,'WALLER 1 1  ', 138.0000,1,   7,  71,   7,1.03265, -12.4654,1.10000,0.90000,1.10000,0.90000
110155,'WALLER 2 1  ', 138.0000,1,   7,  71,   7,1.03076, -13.4550,1.10000,0.90000,1.10000,0.90000
110156,'PATTISON 2 1', 138.0000,1,   7,  71,   7,1.03045, -16.7525,1.10000,0.90000,1.10000,0.90000
110157,'WALLIS 1 1  ', 138.0000,1,   7,  71,   7,1.02375, -15.8760,1.10000,0.90000,1.10000,0.90000
110158,'KATY 1 1    ', 138.0000,1,   7,  71,   7,1.02350, -20.9678,1.10000,0.90000,1.10000,0.90000
110159,'SEALY 3 1   ', 138.0000,1,   7,  71,   7,1.03503, -16.7155,1.10000,0.90000,1.10000,0.90000
110160,'SEALY 4 1   ', 345.0000,1,   7,  71,   7,1.03862, -11.5766,1.10000,0.90000,1.10000,0.90000
110161,'SEALY 4 2   ', 138.0000,1,   7,  71,   7,1.03853, -14.6979,1.10000,0.90000,1.10000,0.90000
110162,'GALENA PAR~1', 138.0000,1,   7,  71,   7,1.02386, -24.8193,1.10000,0.90000,1.10000,0.90000
110163,'GALENA PAR~2',  69.0000,1,   7,  71,   7,1.01890, -27.2645,1.10000,0.90000,1.10000,0.90000
110164,'HUMBLE 1 1  ',  69.0000,1,   7,  71,   7,1.00954, -27.8732,1.10000,0.90000,1.10000,0.90000
110165,'HUMBLE 2 1  ', 138.0000,1,   7,  71,   7,1.01343, -24.0833,1.10000,0.90000,1.10000,0.90000
110166,'HUMBLE 2 2  ',  69.0000,1,   7,  71,   7,1.01908, -27.3131,1.10000,0.90000,1.10000,0.90000
110167,'HUMBLE 3 1  ',  69.0000,1,   7,  71,   7,1.01627, -27.9969,1.10000,0.90000,1.10000,0.90000
110168,'HOUSTON 1 1 ',  69.0000,1,   7,  71,   7,1.00703, -28.4812,1.10000,0.90000,1.10000,0.90000
110169,'HUMBLE 4 1  ', 138.0000,1,   7,  71,   7,1.01980, -25.9352,1.10000,0.90000,1.10000,0.90000
110170,'HUMBLE 4 2  ',  69.0000,1,   7,  71,   7,1.02550, -27.9649,1.10000,0.90000,1.10000,0.90000
110171,'HUMBLE 5 1  ',  69.0000,1,   7,  71,   7,1.01547, -27.7090,1.10000,0.90000,1.10000,0.90000
110172,'HUMBLE 6 1  ', 138.0000,1,   7,  71,   7,1.00473, -25.7552,1.10000,0.90000,1.10000,0.90000
110173,'HUMBLE 6 2  ',  69.0000,1,   7,  71,   7,1.00732, -27.8240,1.10000,0.90000,1.10000,0.90000
110174,'HOUSTON 2 1 ', 138.0000,1,   7,  71,   7,1.01986, -25.5730,1.10000,0.90000,1.10000,0.90000
110175,'HOUSTON 2 2 ',  69.0000,1,   7,  71,   7,1.00459, -28.2319,1.10000,0.90000,1.10000,0.90000
110176,'HUMBLE 7 1  ', 138.0000,1,   7,  71,   7,1.00953, -25.0396,1.10000,0.90000,1.10000,0.90000
110177,'HUMBLE 7 2  ',  69.0000,1,   7,  71,   7,1.01207, -27.3576,1.10000,0.90000,1.10000,0.90000
110178,'HUMBLE 8 1  ',  69.0000,1,   7,  71,   7,1.02891, -28.1617,1.10000,0.90000,1.10000,0.90000
110179,'HOUSTON 3 1 ',  69.0000,1,   7,  71,   7,1.01180, -28.0805,1.10000,0.90000,1.10000,0.90000
110180,'KATY 2 1    ',  69.0000,1,   7,  71,   7,1.02123, -25.4872,1.10000,0.90000,1.10000,0.90000
110181,'CYPRESS 1 1 ',  69.0000,1,   7,  71,   7,1.02101, -25.0274,1.10000,0.90000,1.10000,0.90000
110182,'KATY 3 1    ',  69.0000,1,   7,  71,   7,1.01837, -25.6764,1.10000,0.90000,1.10000,0.90000
110183,'KATY 4 1    ',  69.0000,1,   7,  71,   7,1.02366, -25.4602,1.10000,0.90000,1.10000,0.90000
110184,'KATY 5 1    ',  69.0000,1,   7,  71,   7,1.02190, -25.4572,1.10000,0.90000,1.10000,0.90000
110185,'KATY 6 1    ',  69.0000,1,   7,  71,   7,1.02928, -24.2873,1.10000,0.90000,1.10000,0.90000
110186,'KATY 7 1    ',  69.0000,1,   7,  71,   7,1.02836, -24.6282,1.10000,0.90000,1.10000,0.90000
110187,'KATY 8 1    ',  69.0000,1,   7,  71,   7,1.02376, -25.4376,1.10000,0.90000,1.10000,0.90000
110188,'KATY 9 1    ', 138.0000,1,   7,  71,   7,1.02603, -21.4787,1.10000,0.90000,1.10000,0.90000
110189,'KATY 9 2    ',  69.0000,1,   7,  71,   7,1.03376, -24.6066,1.10000,0.90000,1.10000,0.90000
110190,'KATY 9 3    ',  18.0000,1,   7,  71,   7,1.02749, -22.1379,1.10000,0.90000,1.10000,0.90000
110191,'KATY 9 4    ',   1.0000,1,   7,  71,   7,1.02749, -22.1379,1.10000,0.90000,1.10000,0.90000
110192,'CYPRESS 2 1 ',  69.0000,1,   7,  71,   7,1.02168, -25.4123,1.10000,0.90000,1.10000,0.90000
110193,'KATY 10 1   ',  69.0000,1,   7,  71,   7,1.01983, -25.0463,1.10000,0.90000,1.10000,0.90000
110194,'CYPRESS 3 1 ',  69.0000,1,   7,  71,   7,1.02706, -25.5017,1.10000,0.90000,1.10000,0.90000
110195,'KATY 11 1   ',  69.0000,1,   7,  71,   7,1.03231, -25.4261,1.10000,0.90000,1.10000,0.90000
110196,'KATY 12 1   ',  69.0000,1,   7,  71,   7,1.02532, -25.4351,1.10000,0.90000,1.10000,0.90000
110197,'KATY 13 1   ',  69.0000,1,   7,  71,   7,1.02101, -24.9488,1.10000,0.90000,1.10000,0.90000
110198,'CYPRESS 4 1 ',  69.0000,1,   7,  71,   7,1.01796, -25.2238,1.10000,0.90000,1.10000,0.90000
110199,'KATY 14 1   ',  69.0000,1,   7,  71,   7,1.02964, -24.7124,1.10000,0.90000,1.10000,0.90000
110200,'CYPRESS 5 1 ',  69.0000,1,   7,  71,   7,1.02072, -25.3872,1.10000,0.90000,1.10000,0.90000
...
0 / END OF BUS DATA, BEGIN LOAD DATA
110001,'1 ',1,   7,  71,     0.218,     0.080,     0.000,     0.000,     0.000,     0.000,   7,1,0
110005,'1 ',1,   7,  71,    11.600,     4.160,     0.000,     0.000,     0.000,     0.000,   7,1,0
110005,'5 ',1,   7,  71,    68.100,    34.500,     0.000,     0.000,     0.000,     0.000,   7,1,0
110009,'1 ',1,   7,  71,     5.900,     2.030,     0.000,     0.000,     0.000,     0.000,   7,1,0
110013,'1 ',1,   7,  71,    15.300,     3.540,     0.000,     0.000,     0.000,     0.000,   7,1,0
110017,'1 ',1,   7,  71,    11.000,     2.710,     0.000,     0.000,     0.000,     0.000,   7,1,0
110021,'1 ',1,   7,  71,     8.300,     1.880,     0.000,     0.000,     0.000,     0.000,   7,1,0
110025,'1 ',1,   7,  71,     7.300,     2.110,     0.000,     0.000,     0.000,     0.000,   7,1,0
110029,'1 ',1,   7,  71,     7.700,     2.030,     0.000,     0.000,     0.000,     0.000,   7,1,0
110033,'1 ',1,   7,  71,     7.500,     1.800,     0.000,     0.000,     0.000,     0.000,   7,1,0
110037,'1 ',1,   7,  71,     4.250,     0.680,     0.000,     0.000,     0.000,     0.000,   7,1,0
110041,'1 ',1,   7,  71,     2.560,     0.530,     0.000,     0.000,     0.000,     0.000,   7,1,0
110045,'1 ',1,   7,  71,     1.730,     0.530,     0.000,     0.000,     0.000,     0.000,   7,1,0
110049,'1 ',1,   7,  71,     3.090,     0.301,     0.000,     0.000,     0.000,     0.000,   7,1,0
110053,'1 ',1,   7,  71,     4.250,     0.680,     0.000,     0.000,     0.000,     0.000,   7,1,0
110057,'1 ',1,   7,  71,     0.610,     0.212,     0.000,     0.000,     0.000,     0.000,   7,1,0
110061,'1 ',1,   7,  71,     1.580,     0.380,     0.000,     0.000,     0.000,     0.000,   7,1,0
110065,'1 ',1,   7,  71,     3.240,     1.050,     0.000,     0.000,     0.000,     0.000,   7,1,0
110069,'1 ',1,   7,  71,    10.400,     2.260,     0.000,     0.000,     0.000,     0.000,   7,1,0
110073,'1 ',1,   7,  71,     5.700,     1.130,     0.000,     0.000,     0.000,     0.000,   7,1,0
110077,'1 ',1,   7,  71,     2.410,     0.450,     0.000,     0.000,     0.000,     0.000,   7,1,0
110081,'1 ',1,   7,  71,     4.700,     0.221,     0.000,     0.000,     0.000,     0.000,   7,1,0
110085,'1 ',1,   7,  71,     4.070,     1.050,     0.000,     0.000,     0.000,     0.000,   7,1,0
110089,'1 ',1,   7,  71,     3.890,     0.380,     0.000,     0.000,     0.000,     0.000,   7,1,0
110093,'1 ',1,   7,  71,     0.580,     0.142,     0.000,     0.000,     0.000,     0.000,   7,1,0
110096,'5 ',1,   7,  71,   115.000,    75.200,     0.000,     0.000,     0.000,     0.000,   7,1,0
110097,'1 ',1,   7,  71,     1.950,     0.450,     0.000,     0.000,     0.000,     0.000,   7,1,0
110101,'1 ',1,   7,  71,     0.990,     0.301,     0.000,     0.000,     0.000,     0.000,   7,1,0
110105,'1 ',1,   7,  71,     4.800,     0.301,     0.000,     0.000,     0.000,     0.000,   7,1,0
110109,'1 ',1,   7,  71,     0.090,     0.009,     0.000,     0.000,     0.000,     0.000,   7,1,0
110113,'1 ',1,   7,  71,     0.660,     0.221,     0.000,     0.000,     0.000,     0.000,   7,1,0
110117,'1 ',1,   7,  71,     4.700,     0.750,     0.000,     0.000,     0.000,     0.000,   7,1,0
110118,'1 ',1,   7,  71,     0.630,     0.221,     0.000,     0.000,     0.000,     0.000,   7,1,0
110119,'1 ',1,   7,  71,     1.950,     0.680,     0.000,     0.000,     0.000,     0.000,   7,1,0
110120,'1 ',1,   7,  71,     2.180,     0.600,     0.000,     0.000,     0.000,     0.000,   7,1,0
110121,'1 ',1,   7,  71,     0.490,     0.159,     0.000,     0.000,     0.000,     0.000,   7,1,0
110122,'1 ',1,   7,  71,     0.920,     0.301,     0.000,     0.000,     0.000,     0.000,   7,1,0
110123,'1 ',1,   7,  71,     2.340,     0.450,     0.000,     0.000,     0.000,     0.000,   7,1,0
110123,'5 ',1,   7,  71,   108.800,    78.700,     0.000,     0.000,     0.000,     0.000,   7,1,0
110124,'1 ',1,   7,  71,     0.460,     0.088,     0.000,     0.000,     0.000,     0.000,   7,1,0
110125,'1 ',1,   7,  71,    26.800,     4.330,     0.000,     0.000,     0.000,     0.000,   7,1,0
110127,'1 ',1,   7,  71,    27.900,     5.700,     0.000,     0.000,     0.000,     0.000,   7,1,0
110127,'5 ',1,   7,  71,   194.600,    76.100,     0.000,     0.000,     0.000,     0.000,   7,1,0
110128,'1 ',1,   7,  71,    41.400,     6.700,     0.000,     0.000,     0.000,     0.000,   7,1,0
110129,'1 ',1,   7,  71,    22.700,     2.560,     0.000,     0.000,     0.000,     0.000,   7,1,0
110129,'2 ',1,   7,  71,    15.000,     5.700,     0.000,     0.000,     0.000,     0.000,   7,1,0
110130,'1 ',1,   7,  71,    10.300,     1.130,     0.000,     0.000,     0.000,     0.000,   7,1,0
110131,'1 ',1,   7,  71,    15.500,     2.560,     0.000,     0.000,     0.000,     0.000,   7,1,0
110132,'1 ',1,   7,  71,    22.700,     4.070,     0.000,     0.000,     0.000,     0.000,   7,1,0
110132,'5 ',1,   7,  71,    77.800,     5.300,     0.000,     0.000,     0.000,     0.000,   7,1,0
110133,'1 ',1,   7,  71,     6.300,     1.950,     0.000,     0.000,     0.000,     0.000,   7,1,0
110134,'1 ',1,   7,  71,     4.600,     0.600,     0.000,     0.000,     0.000,     0.000,   7,1,0
110135,'1 ',1,   7,  71,    21.800,     6.700,     0.000,     0.000,     0.000,     0.000,   7,1,0
110136,'1 ',1,   7,  71,     9.500,     3.090,     0.000,     0.000,     0.000,     0.000,   7,1,0
110137,'1 ',1,   7,  71,    14.200,     2.340,     0.000,     0.000,     0.000,     0.000,   7,1,0
110138,'1 ',1,   7,  71,    14.900,     5.300,     0.000,     0.000,     0.000,     0.000,   7,1,0
110139,'1 ',1,   7,  71,     0.480,     0.080,     0.000,     0.000,     0.000,     0.000,   7,1,0
110140,'1 ',1,   7,  71,     9.400,     1.350,     0.000,     0.000,     0.000,     0.000,   7,1,0
110141,'1 ',1,   7,  71,     8.800,     2.860,     0.000,     0.000,     0.000,     0.000,   7,1,0
110141,'2 ',1,   7,  71,     9.300,     2.110,     0.000,     0.000,     0.000,     0.000,   7,1,0
110142,'1 ',1,   7,  71,     3.160,     0.900,     0.000,     0.000,     0.000,     0.000,   7,1,0
110142,'2 ',1,   7,  71,    18.300,    15.600,     0.000,     0.000,     0.000,     0.000,   7,1,0
110143,'1 ',1,   7,  71,     6.300,     0.900,     0.000,     0.000,     0.000,     0.000,   7,1,0
110144,'1 ',1,   7,  71,     2.640,     0.301,     0.000,     0.000,     0.000,     0.000,   7,1,0
110144,'5 ',1,   7,  71,    66.300,    33.600,     0.000,     0.000,     0.000,     0.000,   7,1,0
110145,'1 ',1,   7,  71,     1.880,     0.380,     0.000,     0.000,     0.000,     0.000,   7,1,0
110146,'1 ',1,   7,  71,     0.960,     0.221,     0.000,     0.000,     0.000,     0.000,   7,1,0
110147,'1 ',1,   7,  71,     6.500,     0.830,     0.000,     0.000,     0.000,     0.000,   7,1,0
110148,'1 ',1,   7,  71,     2.860,     0.221,     0.000,     0.000,     0.000,     0.000,   7,1,0
110149,'1 ',1,   7,  71,     9.800,     3.540,     0.000,     0.000,     0.000,     0.000,   7,1,0
110150,'1 ',1,   7,  71,     5.200,     1.580,     0.000,     0.000,     0.000,     0.000,   7,1,0
110151,'1 ',1,   7,  71,     6.400,     2.030,     0.000,     0.000,     0.000,     0.000,   7,1,0
110152,'1 ',1,   7,  71,     4.070,     0.530,     0.000,     0.000,     0.000,     0.000,   7,1,0
110153,'1 ',1,   7,  71,     5.400,     1.950,     0.000,     0.000,     0.000,     0.000,   7,1,0
110154,'1 ',1,   7,  71,     5.700,     1.730,     0.000,     0.000,     0.000,     0.000,   7,1,0
110155,'1 ',1,   7,  71,     4.900,     1.730,     0.000,     0.000,     0.000,     0.000,   7,1,0
110156,'1 ',1,   7,  71,     4.600,     0.750,     0.000,     0.000,     0.000,     0.000,   7,1,0
110157,'1 ',1,   7,  71,     6.300,     0.680,     0.000,     0.000,     0.000,     0.000,   7,1,0
110158,'1 ',1,   7,  71,     2.860,     0.750,     0.000,     0.000,     0.000,     0.000,   7,1,0
110159,'1 ',1,   7,  71,     2.790,     0.980,     0.000,     0.000,     0.000,     0.000,   7,1,0
110161,'1 ',1,   7,  71,     2.640,     0.221,     0.000,     0.000,     0.000,     0.000,   7,1,0
110161,'2 ',1,   7,  71,     8.500,     6.400,     0.000,     0.000,     0.000,     0.000,   7,1,0
110163,'1 ',1,   7,  71,    42.100,    12.600,     0.000,     0.000,     0.000,     0.000,   7,1,0
110164,'1 ',1,   7,  71,    22.200,     6.700,     0.000,     0.000,     0.000,     0.000,   7,1,0
110164,'2 ',1,   7,  71,     8.000,     4.800,     0.000,     0.000,     0.000,     0.000,   7,1,0
110166,'1 ',1,   7,  71,    37.900,     5.700,     0.000,     0.000,     0.000,     0.000,   7,1,0
110167,'1 ',1,   7,  71,    25.700,     3.240,     0.000,     0.000,     0.000,     0.000,   7,1,0
110168,'1 ',1,   7,  71,    26.400,     5.600,     0.000,     0.000,     0.000,     0.000,   7,1,0
110170,'1 ',1,   7,  71,    40.200,    11.000,     0.000,     0.000,     0.000,     0.000,   7,1,0
110171,'1 ',1,   7,  71,     4.900,     1.580,     0.000,     0.000,     0.000,     0.000,   7,1,0
110173,'1 ',1,   7,  71,    54.700,    11.600,     0.000,     0.000,     0.000,     0.000,   7,1,0
110175,'1 ',1,   7,  71,    43.100,    11.700,     0.000,     0.000,     0.000,     0.000,   7,1,0
110177,'1 ',1,   7,  71,    59.100,    16.800,     0.000,     0.000,     0.000,     0.000,   7,1,0
110177,'2 ',1,   7,  71,    17.800,     1.950,     0.000,     0.000,     0.000,     0.000,   7,1,0
110178,'1 ',1,   7,  71,    33.300,    10.300,     0.000,     0.000,     0.000,     0.000,   7,1,0
110179,'1 ',1,   7,  71,    23.400,     7.100,     0.000,     0.000,     0.000,     0.000,   7,1,0
110180,'1 ',1,   7,  71,    10.000,     2.180,     0.000,     0.000,     0.000,     0.000,   7,1,0
110181,'1 ',1,   7,  71,     5.300,     1.280,     0.000,     0.000,     0.000,     0.000,   7,1,0
110181,'2 ',1,   7,  71,    11.900,     9.300,     0.000,     0.000,     0.000,     0.000,   7,1,0
110182,'1 ',1,   7,  71,     6.400,     1.950,     0.000,     0.000,     0.000,     0.000,   7,1,0
110183,'1 ',1,   7,  71,     9.200,     3.310,     0.000,     0.000,     0.000,     0.000,   7,1,0
110184,'1 ',1,   7,  71,     5.300,     1.280,     0.000,     0.000,     0.000,     0.000,   7,1,0
110185,'1 ',1,   7,  71,     3.890,     1.130,     0.000,     0.000,     0.000,     0.000,   7,1,0
110186,'1 ',1,   7,  71,     5.300,     0.830,     0.000,     0.000,     0.000,     0.000,   7,1,0
110187,'1 ',1,   7,  71,    10.800,     2.640,     0.000,     0.000,     0.000,     0.000,   7,1,0
110187,'2 ',1,   7,  71,     6.100,     5.300,     0.000,     0.000,     0.000,     0.000,   7,1,0
110189,'1 ',1,   7,  71,     7.900,     1.200,     0.000,     0.000,     0.000,     0.000,   7,1,0
110192,'1 ',1,   7,  71,     6.400,     1.580,     0.000,     0.000,     0.000,     0.000,   7,1,0
110193,'1 ',1,   7,  71,     5.700,     1.430,     0.000,     0.000,     0.000,     0.000,   7,1,0
110194,'1 ',1,   7,  71,     3.610,     0.150,     0.000,     0.000,     0.000,     0.000,   7,1,0
110195,'1 ',1,   7,  71,     4.800,     1.500,     0.000,     0.000,     0.000,     0.000,   7,1,0
110196,'1 ',1,   7,  71,     2.410,     0.530,     0.000,     0.000,     0.000,     0.000,   7,1,0
110197,'1 ',1,   7,  71,     8.000,     2.710,     0.000,     0.000,     0.000,     0.000,   7,1,0
110198,'1 ',1,   7,  71,     5.300,     1.580,     0.000,     0.000,     0.000,     0.000,   7,1,0
110198,'2 ',1,   7,  71,    10.800,     6.700,     0.000,     0.000,     0.000,     0.000,   7,1,0
110199,'1 ',1,   7,  71,     4.800,     1.500,     0.000,     0.000,     0.000,     0.000,   7,1,0
110200,'1 ',1,   7,  71,     7.300,     2.110,     0.000,     0.000,     0.000,     0.000,   7,1,0
110201,'1 ',1,   7,  71,     4.420,     0.900,     0.000,     0.000,     0.000,     0.000,   7,1,0
110202,'1 ',1,   7,  71,     3.240,     0.680,     0.000,     0.000,     0.000,     0.000,   7,1,0
110203,'1 ',1,   7,  71,     3.010,     0.221,     0.000,     0.000,     0.000,     0.000,   7,1,0
110204,'1 ',1,   7,  71,     1.330,     0.301,     0.000,     0.000,     0.000,     0.000,   7,1,0
110205,'1 ',1,   7,  71,     3.690,     0.600,     0.000,     0.000,     0.000,     0.000,   7,1,0
110206,'1 ',1,   7,  71,     5.800,     1.500,     0.000,     0.000,     0.000,     0.000,   7,1,0
110207,'1 ',1,   7,  71,     3.890,     0.830,     0.000,     0.000,     0.000,     0.000,   7,1,0
110208,'1 ',1,   7,  71,     5.300,     0.750,     0.000,     0.000,     0.000,     0.000,   7,1,0
110209,'1 ',1,   7,  71,     8.000,     2.940,     0.000,     0.000,     0.000,     0.000,   7,1,0
110210,'1 ',1,   7,  71,     7.500,     1.800,     0.000,     0.000,     0.000,     0.000,   7,1,0
110211,'1 ',1,   7,  71,     5.300,     1.950,     0.000,     0.000,     0.000,     0.000,   7,1,0
110212,'5 ',1,   7,  71,    63.700,    41.600,     0.000,     0.000,     0.000,     0.000,   7,1,0
110213,'1 ',1,   7,  71,     6.800,     2.340,     0.000,     0.000,     0.000,     0.000,   7,1,0
110214,'1 ',1,   7,  71,     4.900,     1.730,     0.000,     0.000,     0.000,     0.000,   7,1,0
110215,'1 ',1,   7,  71,     5.400,     1.430,     0.000,     0.000,     0.000,     0.000,   7,1,0
110216,'1 ',1,   7,  71,     8.700,     2.340,     0.000,     0.000,     0.000,     0.000,   7,1,0
110217,'1 ',1,   7,  71,     7.000,     2.110,     0.000,     0.000,     0.000,     0.000,   7,1,0
110218,'1 ',1,   7,  71,     4.330,     1.200,     0.000,     0.000,     0.000,     0.000,   7,1,0
110219,'1 ',1,   7,  71,     3.690,     1.130,     0.000,     0.000,     0.000,     0.000,   7,1,0
110220,'1 ',1,   7,  71,     3.890,     0.750,     0.000,     0.000,     0.000,     0.000,   7,1,0
110221,'1 ',1,   7,  71,     1.950,     0.450,     0.000,     0.000,     0.000,     0.000,   7,1,0
110222,'1 ',1,   7,  71,     3.390,     1.200,     0.000,     0.000,     0.000,     0.000,   7,1,0
110223,'1 ',1,   7,  71,     7.400,     2.640,     0.000,     0.000,     0.000,     0.000,   7,1,0
110224,'1 ',1,   7,  71,     3.800,     1.200,     0.000,     0.000,     0.000,     0.000,   7,1,0
110225,'1 ',1,   7,  71,     5.600,     0.150,     0.000,     0.000,     0.000,     0.000,   7,1,0
110226,'1 ',1,   7,  71,     6.000,     1.050,     0.000,     0.000,     0.000,     0.000,   7,1,0
110227,'1 ',1,   7,  71,     2.490,     0.450,     0.000,     0.000,     0.000,     0.000,   7,1,0
110228,'1 ',1,   7,  71,     3.090,     0.900,     0.000,     0.000,     0.000,     0.000,   7,1,0
110229,'1 ',1,   7,  71,     4.600,     1.130,     0.000,     0.000,     0.000,     0.000,   7,1,0
110230,'1 ',1,   7,  71,     2.180,     0.600,     0.000,     0.000,     0.000,     0.000,   7,1,0
110231,'1 ',1,   7,  71,     1.800,     0.380,     0.000,     0.000,     0.000,     0.000,   7,1,0
110232,'1 ',1,   7,  71,     6.200,     1.800,     0.000,     0.000,     0.000,     0.000,   7,1,0
110233,'1 ',1,   7,  71,     2.860,     0.830,     0.000,     0.000,     0.000,     0.000,   7,1,0
110234,'1 ',1,   7,  71,     3.240,     0.830,     0.000,     0.000,     0.000,     0.000,   7,1,0
110235,'1 ',1,   7,  71,     5.000,     0.150,     0.000,     0.000,     0.000,     0.000,   7,1,0
110236,'1 ',1,   7,  71,     3.010,     0.750,     0.000,     0.000,     0.000,     0.000,   7,1,0
110237,'1 ',1,   7,  71,     1.320,     0.380,     0.000,     0.000,     0.000,     0.000,   7,1,0
110238,'1 ',1,   7,  71,     6.100,     1.950,     0.000,     0.000,     0.000,     0.000,   7,1,0
110239,'1 ',1,   7,  71,     4.330,     1.200,     0.000,     0.000,     0.000,     0.000,   7,1,0
110240,'1 ',1,   7,  71,     5.700,     1.350,     0.000,     0.000,     0.000,     0.000,   7,1,0
110241,'1 ',1,   7,  71,     1.950,     0.380,     0.000,     0.000,     0.000,     0.000,   7,1,0
110242,'1 ',1,   7,  71,     4.600,     1.580,     0.000,     0.000,     0.000,     0.000,   7,1,0
110243,'1 ',1,   7,  71,     4.800,     1.430,     0.000,     0.000,     0.000,     0.000,   7,1,0
110244,'1 ',1,   7,  71,     4.250,     1.430,     0.000,     0.000,     0.000,     0.000,   7,1,0
110245,'1 ',1,   7,  71,     5.400,     0.980,     0.000,     0.000,     0.000,     0.000,   7,1,0
110246,'1 ',1,   7,  71,     6.500,     1.950,     0.000,     0.000,     0.000,     0.000,   7,1,0
110247,'1 ',1,   7,  71,     4.250,     0.680,     0.000,     0.000,     0.000,     0.000,   7,1,0
110248,'1 ',1,   7,  71,     5.600,     0.980,     0.000,     0.000,     0.000,     0.000,   7,1,0
110249,'1 ',1,   7,  71,     5.600,     0.900,     0.000,     0.000,     0.000,     0.000,   7,1,0
110250,'1 ',1,   7,  71,     4.500,     1.280,     0.000,     0.000,     0.000,     0.000,   7,1,0
110251,'1 ',1,   7,  71,     5.000,     1.050,     0.000,     0.000,     0.000,     0.000,   7,1,0
110252,'1 ',1,   7,  71,     2.790,     0.380,     0.000,     0.000,     0.000,     0.000,   7,1,0
110253,'1 ',1,   7,  71,     4.250,     0.380,     0.000,     0.000,     0.000,     0.000,   7,1,0
110254,'1 ',1,   7,  71,     5.700,     0.750,     0.000,     0.000,     0.000,     0.000,   7,1,0
110255,'1 ',1,   7,  71,     7.600,     0.980,     0.000,     0.000,     0.000,     0.000,   7,1,0
110256,'1 ',1,   7,  71,     5.600,     1.880,     0.000,     0.000,     0.000,     0.000,   7,1,0
110257,'1 ',1,   7,  71,     5.700,     1.280,     0.000,     0.000,     0.000,     0.000,   7,1,0
110258,'1 ',1,   7,  71,     2.260,     0.680,     0.000,     0.000,     0.000,     0.000,   7,1,0
110259,'1 ',1,   7,  71,     7.200,     1.130,     0.000,     0.000,     0.000,     0.000,   7,1,0
110260,'1 ',1,   7,  71,     1.140,     0.150,     0.000,     0.000,     0.000,     0.000,   7,1,0
110261,'1 ',1,   7,  71,     8.900,     2.560,     0.000,     0.000,     0.000,     0.000,   7,1,0
110263,'1 ',1,   7,  71,     8.900,     2.640,     0.000,     0.000,     0.000,     0.000,   7,1,0
110264,'1 ',1,   7,  71,     4.600,     0.900,     0.000,     0.000,     0.000,     0.000,   7,1,0
110265,'1 ',1,   7,  71,     7.400,     0.221,     0.000,     0.000,     0.000,     0.000,   7,1,0
110266,'1 ',1,   7,  71,     7.200,     0.530,     0.000,     0.000,     0.000,     0.000,   7,1,0
110267,'1 ',1,   7,  71,     6.700,     1.650,     0.000,     0.000,     0.000,     0.000,   7,1,0
110268,'1 ',1,   7,  71,     9.300,     1.730,     0.000,     0.000,     0.000,     0.000,   7,1,0
110268,'2 ',1,   7,  71,     6.800,     7.000,     0.000,     0.000,     0.000,     0.000,   7,1,0
110269,'1 ',1,   7,  71,     6.800,     1.800,     0.000,     0.000,     0.000,     0.000,   7,1,0
110270,'1 ',1,   7,  71,     4.250,     1.050,     0.000,     0.000,     0.000,     0.000,   7,1,0
110271,'1 ',1,   7,  71,     6.800,     1.800,     0.000,     0.000,     0.000,     0.000,   7,1,0
110272,'1 ',1,   7,  71,     8.000,     1.050,     0.000,     0.000,     0.000,     0.000,   7,1,0
110274,'1 ',1,   7,  71,     7.600,     1.880,     0.000,     0.000,     0.000,     0.000,   7,1,0
110275,'1 ',1,   7,  71,     9.300,     2.490,     0.000,     0.000,     0.000,     0.000,   7,1,0
110276,'1 ',1,   7,  71,     5.100,     1.050,     0.000,     0.000,     0.000,     0.000,   7,1,0
110277,'1 ',1,   7,  71,     3.090,     0.600,     0.000,     0.000,     0.000,     0.000,   7,1,0
110277,'2 ',1,   7,  71,     7.500,     0.900,     0.000,     0.000,     0.000,     0.000,   7,1,0
110278,'1 ',1,   7,  71,     3.760,     0.450,     0.000,     0.000,     0.000,     0.000,   7,1,0
110278,'2 ',1,   7,  71,     7.700,     2.030,     0.000,     0.000,     0.000,     0.000,   7,1,0
110279,'1 ',1,   7,  71,     1.060,     0.080,     0.000,     0.000,     0.000,     0.000,   7,1,0
110280,'1 ',1,   7,  71,     2.410,     0.600,     0.000,     0.000,     0.000,     0.000,   7,1,0
110281,'1 ',1,   7,  71,     1.650,     0.150,     0.000,     0.000,     0.000,     0.000,   7,1,0
110282,'1 ',1,   7,  71,     1.050,     0.150,     0.000,     0.000,     0.000,     0.000,   7,1,0
...
0 / END OF LOAD DATA, BEGIN FIXED SHUNT DATA
110126,'2 ',1,     0.000,    38.420
110160,'2 ',1,     0.000,    22.913
110178,'2 ',1,     0.000,    35.000
110194,'2 ',1,     0.000,     0.000
110206,'2 ',1,     0.000,     0.000
110224,'2 ',1,     0.000,    43.200
110252,'2 ',1,     0.000,    42.000
110267,'2 ',1,     0.000,    51.200
110276,'2 ',1,     0.000,     0.000
110350,'2 ',1,     0.000,     0.000
110351,'2 ',1,     0.000,    26.100
110426,'2 ',1,     0.000,    56.800
110440,'2 ',1,     0.000,    60.500
110479,'2 ',1,     0.000,    39.200
110538,'2 ',1,     0.000,    89.600
110558,'2 ',1,     0.000,    64.462
110619,'2 ',1,     0.000,     0.000
110633,'2 ',1,     0.000,    14.904
110675,'2 ',1,     0.000,    19.037
110712,'2 ',1,     0.000,    63.900
110761,'2 ',1,     0.000,    49.500
110776,'2 ',1,     0.000,    61.800
110784,'2 ',1,     0.000,    80.400
110805,'2 ',1,     0.000,    26.665
110809,'2 ',1,     0.000,    49.000
110834,'2 ',1,     0.000,    87.000
110883,'2 ',1,     0.000,    85.482
110893,'2 ',1,     0.000,     0.000
110896,'2 ',1,     0.000,    23.400
110913,'2 ',1,     0.000,    47.200
110918,'2 ',1,     0.000,    64.867
110943,'2 ',1,     0.000,    74.032
110943,'3 ',1,     0.000,    74.032
110972,'2 ',1,     0.000,    93.239
110972,'3 ',1,     0.000,    93.239
110994,'2 ',1,     0.000,    37.057
111035,'2 ',1,     0.000,    64.363
111035,'3 ',1,     0.000,    64.363
111035,'4 ',1,     0.000,    64.363
111038,'2 ',1,     0.000,    22.800
111095,'2 ',1,     0.000,    22.400
111112,'2 ',1,     0.000,    76.200
111207,'2 ',1,     0.000,   120.440
111284,'2 ',1,     0.000,    30.930
111362,'2 ',1,     0.000,    70.860
111370,'2 ',1,     0.000,   104.320
111389,'2 ',1,     0.000,    37.870
120075,'2 ',1,     0.000,     0.000
120093,'2 ',1,     0.000,     0.000
120132,'2 ',1,     0.000,     0.000
120203,'2 ',1,     0.000,     0.000
120273,'2 ',1,     0.000,     0.000
120286,'2 ',1,     0.000,     0.000
120319,'2 ',1,     0.000,    52.500
120319,'3 ',1,     0.000,     0.000
120365,'2 ',1,     0.000,    37.325
120383,'2 ',1,     0.000,    66.400
120388,'2 ',1,     0.000,   112.000
120437,'2 ',1,     0.000,    39.720
120471,'2 ',1,     0.000,    99.000
120471,'3 ',1,     0.000,    99.000
130049,'2 ',1,     0.000,   132.000
130049,'3 ',1,     0.000,    61.600
130066,'2 ',1,     0.000,    15.400
130066,'3 ',1,     0.000,     0.000
130066,'4 ',1,     0.000,     0.000
130073,'2 ',1,     0.000,    14.100
130136,'2 ',1,     0.000,     0.000
130194,'2 ',1,     0.000,     0.000
130234,'2 ',1,     0.000,    19.800
130256,'2 ',1,     0.000,    33.000
130290,'2 ',1,     0.000,     0.000
130354,'2 ',1,     0.000,    19.800
130357,'2 ',1,     0.000,   165.580
130357,'3 ',1,     0.000,   165.580
130367,'2 ',1,     0.000,     0.000
140036,'2 ',1,     0.000,    14.914
140061,'2 ',1,     0.000,    56.800
140107,'2 ',1,     0.000,     0.000
140204,'2 ',1,     0.000,    45.400
140266,'2 ',1,     0.000,    82.950
140303,'2 ',1,     0.000,   124.210
150007,'2 ',1,     0.000,     0.000
150030,'2 ',1,     0.000,     0.000
150049,'2 ',1,     0.000,     0.000
150071,'2 ',1,     0.000,    19.500
150120,'2 ',1,     0.000,     0.000
150120,'3 ',1,     0.000,     0.000
150120,'4 ',1,     0.000,     0.000
150136,'2 ',1,     0.000,    32.400
150182,'2 ',1,     0.000,    10.200
150242,'2 ',1,     0.000,    27.800
150245,'2 ',1,     0.000,     0.000
150274,'2 ',1,     0.000,     0.000
150276,'2 ',1,     0.000,     0.000
150305,'2 ',1,     0.000,     0.000
150318,'2 ',1,     0.000,    10.200
150329,'2 ',1,     0.000,    39.900
150353,'2 ',1,     0.000,    30.400
150388,'2 ',1,     0.000,    11.979
150440,'2 ',1,     0.000,    58.470
150479,'2 ',1,     0.000,   159.780
150493,'2 ',1,     0.000,    99.300
150493,'3 ',1,     0.000,    39.600
150497,'2 ',1,     0.000,    85.532
150497,'3 ',1,     0.000,    85.532
150497,'4 ',1,     0.000,    85.532
150513,'2 ',1,     0.000,    69.980
150526,'2 ',1,     0.000,     0.000
150532,'2 ',1,     0.000,    76.500
150550,'2 ',1,     0.000,   164.190
160156,'2 ',1,     0.000,    56.244
160168,'2 ',1,     0.000,     9.673
160203,'2 ',1,     0.000,    31.220
160284,'2 ',1,     0.000,     7.737
170035,'2 ',1,     0.000,     0.000
170042,'2 ',1,     0.000,    12.490
170064,'2 ',1,     0.000,     0.000
170086,'2 ',1,     0.000,     0.000
170094,'2 ',1,     0.000,     0.000
170108,'2 ',1,     0.000,    14.600
170111,'2 ',1,     0.000,     0.000
170147,'2 ',1,     0.000,     0.000
170148,'2 ',1,     0.000,     0.000
170167,'2 ',1,     0.000,     0.000
170213,'2 ',1,     0.000,    36.000
170218,'2 ',1,     0.000,    19.100
170218,'3 ',1,     0.000,     0.000
170263,'2 ',1,     0.000,    47.800
170283,'2 ',1,     0.000,     0.000
170286,'2 ',1,     0.000,     0.000
170290,'2 ',1,     0.000,    55.177
170308,'2 ',1,     0.000,    26.800
170346,'2 ',1,     0.000,     8.300
170365,'2 ',1,     0.000,    98.400
170370,'2 ',1,     0.000,    26.150
170382,'2 ',1,     0.000,    33.940
170385,'2 ',1,     0.000,    61.500
170404,'2 ',1,     0.000,    64.210
170436,'2 ',1,     0.000,    25.200
170526,'2 ',1,     0.000,    26.429
190001,'2 ',1,     0.000,    21.761
190058,'2 ',1,     0.000,     0.000
190083,'2 ',1,     0.000,    22.558
190100,'2 ',1,     0.000,     0.000
200007,'2 ',1,     0.000,    33.028
200017,'2 ',1,     0.000,    18.289
200019,'2 ',1,     0.000,     0.000
200040,'2 ',1,     0.000,    37.471
200054,'2 ',1,     0.000,    12.812
200100,'2 ',1,     0.000,    21.917
200123,'2 ',1,     0.000,    36.037
200133,'2 ',1,     0.000,    41.089
200154,'2 ',1,     0.000,    20.745
210008,'2 ',1,     0.000,     0.000
210039,'2 ',1,     0.000,     8.700
210119,'2 ',1,     0.000,     0.000
210121,'2 ',1,     0.000,     0.000
210141,'2 ',1,     0.000,     6.900
210158,'2 ',1,     0.000,     0.000
210165,'2 ',1,     0.000,     0.000
210194,'2 ',1,     0.000,     0.000
210281,'2 ',1,     0.000,     0.000
210326,'2 ',1,     0.000,     0.000
210352,'2 ',1,     0.000,     0.000
220090,'2 ',1,     0.000,    64.000
220184,'2 ',1,     0.000,     0.000
230040,'2 ',1,     0.000,    30.000
230068,'2 ',1,     0.000,    43.800
240064,'2 ',1,     0.000,     0.000
240104,'2 ',1,     0.000,     0.000
240127,'2 ',1,     0.000,     0.000
240161,'2 ',1,     0.000,    56.691
240180,'2 ',1,     0.000,     0.000
240276,'2 ',1,     0.000,    62.913
240276,'3 ',1,     0.000,    62.913
240276,'4 ',1,     0.000,    64.000
240302,'2 ',1,     0.000,     0.000
240305,'2 ',1,     0.000,     0.000
240318,'2 ',1,     0.000,    48.770
250107,'2 ',1,     0.000,    15.036
250202,'2 ',1,     0.000,     0.000
250203,'2 ',1,     0.000,    28.190
250230,'2 ',1,     0.000,     0.000
250240,'2 ',1,     0.000,    51.370
250246,'2 ',1,     0.000,     0.000
250335,'2 ',1,     0.000,    19.200
260059,'2 ',1,     0.000,    26.000
260067,'2 ',1,     0.000,    50.800
260105,'2 ',1,     0.000,   156.800
260105,'3 ',1,     0.000,   156.500
260118,'2 ',1,     0.000,    17.900
260119,'2 ',1,     0.000,   144.432
260119,'3 ',1,     0.000,   144.432
260119,'4 ',1,     0.000,   146.000
260147,'2 ',1,     0.000,    42.900
260160,'2 ',1,     0.000,     5.300
260163,'2 ',1,     0.000,    21.090
260179,'2 ',1,     0.000,    25.500
260185,'2 ',1,     0.000,    12.200
...
0 / END OF FIXED SHUNT DATA, BEGIN GENERATOR DATA
111180,'1 ',   643.520,     1.541,   379.710,  -250.067,1.04000,111179,   895.200, 0.00000E+0, 3.73600E-1, 0.00000E+0, 0.00000E+0,1.00000,1,  100.0,   746.000,    87.520,   1,1.0000
111181,'1 ',   630.210,     1.541,   381.240,  -231.351,1.04000,111179,   898.800, 0.00000E+0, 1.40800E-1, 0.00000E+0, 0.00000E+0,1.00000,1,  100.0,   749.000,   303.730,   1,1.0000
111183,'1 ',    46.580,    21.809,    27.490,   -15.800,1.04000,     0,    64.800, 0.00000E+0, 3.57100E-1, 0.00000E+0, 0.00000E+0,1.00000,1,  100.0,    54.000,    15.730,   1,1.0000
111184,'1 ',    23.420,    27.490,    27.490,   -18.365,1.04000,     0,    64.800, 0.00000E+0, 1.28900E-1, 0.00000E+0, 0.00000E+0,1.00000,1,  100.0,    54.000,     6.300,   1,1.0000
111185,'1 ',    46.580,    22.617,    27.490,   -16.918,1.04000,     0,    64.800, 0.00000E+0, 2.73400E-1, 0.00000E+0, 0.00000E+0,1.00000,1,  100.0,    54.000,    23.180,   1,1.0000
111186,'1 ',    43.130,    21.284,    25.450,   -14.495,1.04000,     0,    60.000, 0.00000E+0, 1.10000E-1, 0.00000E+0, 0.00000E+0,1.00000,1,  100.0,    50.000,    23.190,   1,1.0000
111187,'1 ',    55.210,    28.681,    32.580,   -17.087,1.04000,     0,    76.800, 0.00000E+0, 1.25000E-1, 0.00000E+0, 0.00000E+0,1.00000,1,  100.0,    64.000,    21.890,   1,1.0000
111188,'1 ',    43.400,    17.198,    27.490,   -18.665,1.04000,     0,    64.800, 0.00000E+0, 1.74900E-1, 0.00000E+0, 0.00000E+0,1.00000,1,  100.0,    54.000,    26.280,   1,1.0000
111190,'1 ',    60.570,     5.897,    52.940,   -32.246,1.04000,     0,   124.800, 0.00000E+0, 1.65000E-1, 0.00000E+0, 0.00000E+0,1.00000,1,  100.0,   104.000,    27.600,   1,1.0000
111191,'1 ',    81.410,     8.330,    52.940,   -33.749,1.04000,     0,   124.800, 0.00000E+0, 1.06900E-1, 0.00000E+0, 0.00000E+0,1.00000,1,  100.0,   104.000,    48.440,   1,1.0000
111192,'1 ',    49.170,    10.123,    29.010,   -16.931,1.04000,     0,    68.400, 0.00000E+0, 1.21700E-1, 0.00000E+0, 0.00000E+0,1.00000,1,  100.0,    57.000,    20.520,   1,1.0000
111193,'1 ',    32.720,     6.754,    29.010,   -15.977,1.04000,     0,    68.400, 0.00000E+0, 1.30200E-1, 0.00000E+0, 0.00000E+0,1.00000,1,  100.0,    57.000,    14.650,   1,1.0000
111194,'1 ',    49.170,     8.940,    29.010,   -16.846,1.04000,     0,    68.400, 0.00000E+0, 2.02700E-1, 0.00000E+0, 0.00000E+0,1.00000,1,  100.0,    57.000,    28.410,   1,1.0000
111195,'1 ',    49.170,     5.735,    29.010,   -16.909,1.04000,     0,    68.400, 0.00000E+0, 1.38400E-1, 0.00000E+0, 0.00000E+0,1.00000,1,  100.0,    57.000,    24.090,   1,1.0000
111196,'1 ',    49.170,     7.512,    29.010,   -15.263,1.04000,     0,    68.400, 0.00000E+0, 1.03700E-1, 0.00000E+0, 0.00000E+0,1.00000,1,  100.0,    57.000,    14.150,   1,1.0000
111197,'1 ',    49.170,     5.052,    29.010,   -18.086,1.04000,     0,    68.400, 0.00000E+0, 1.32400E-1, 0.00000E+0, 0.00000E+0,1.00000,1,  100.0,    57.000,    13.050,   1,1.0000
111198,'1 ',    49.170,     5.019,    29.010,   -17.449,1.04000,     0,    68.400, 0.00000E+0, 1.37400E-1, 0.00000E+0, 0.00000E+0,1.00000,1,  100.0,    57.000,    13.030,   1,1.0000
111199,'1 ',    43.140,     4.825,    29.010,   -18.575,1.04000,     0,    68.400, 0.00000E+0, 1.34600E-1, 0.00000E+0, 0.00000E+0,1.00000,1,  100.0,    57.000,    25.070,   1,1.0000
111200,'1 ',    44.260,     7.352,    29.520,   -15.638,1.04000,     0,    69.600, 0.00000E+0, 2.41000E-1, 0.00000E+0, 0.00000E+0,1.00000,1,  100.0,    58.000,    25.870,   1,1.0000
111201,'1 ',    50.030,     4.640,    29.520,   -14.742,1.04000,     0,    69.600, 0.00000E+0, 1.27900E-1, 0.00000E+0, 0.00000E+0,1.00000,1,  100.0,    58.000,    25.900,   1,1.0000
111202,'1 ',    50.030,     5.567,    29.520,   -16.542,1.04000,     0,    69.600, 0.00000E+0, 2.79900E-1, 0.00000E+0, 0.00000E+0,1.00000,1,  100.0,    58.000,    10.820,   1,1.0000
111203,'1 ',    50.030,     8.899,    29.520,   -15.654,1.04000,     0,    69.600, 0.00000E+0, 2.87500E-1, 0.00000E+0, 0.00000E+0,1.00000,1,  100.0,    58.000,     8.970,   1,1.0000
111204,'1 ',    36.080,     7.065,    29.520,   -16.446,1.04000,     0,    69.600, 0.00000E+0, 3.61000E-1, 0.00000E+0, 0.00000E+0,1.00000,1,  100.0,    58.000,    17.690,   1,1.0000
111205,'1 ',    45.140,     7.159,    29.520,   -19.791,1.04000,     0,    69.600, 0.00000E+0, 1.15200E-1, 0.00000E+0, 0.00000E+0,1.00000,1,  100.0,    58.000,    26.750,   1,1.0000
111206,'1 ',     0.000,     0.000,     6.620,    -3.797,1.04000,     0,    15.600, 0.00000E+0, 2.34400E-1, 0.00000E+0, 0.00000E+0,1.00000,0,  100.0,    13.000,     3.030,   1,1.0000
111208,'1 ',   572.780,     3.332,   309.420,  -167.626,1.04000,111207,   796.800, 0.00000E+0, 1.49500E-1, 0.00000E+0, 0.00000E+0,1.00000,1,  100.0,   664.000,   149.200,   1,1.0000
111209,'1 ',   571.920,     3.332,   308.960,  -223.785,1.04000,111207,   795.600, 0.00000E+0, 2.27300E-1, 0.00000E+0, 0.00000E+0,1.00000,1,  100.0,   663.000,    76.510,   1,1.0000
111210,'1 ',     0.000,     0.000,   284.260,  -206.117,1.04000,111207,   732.000, 0.00000E+0, 3.24300E-1, 0.00000E+0, 0.00000E+0,1.00000,0,  100.0,   610.000,   224.350,   1,1.0000
111211,'1 ',     0.000,     0.000,   268.880,  -194.275,1.04000,111207,   692.400, 0.00000E+0, 1.97500E-1, 0.00000E+0, 0.00000E+0,1.00000,0,  100.0,   577.000,   183.070,   1,1.0000
111212,'1 ',     0.000,     0.000,     6.620,    -3.760,1.04000,111207,    15.600, 0.00000E+0, 1.01200E-1, 0.00000E+0, 0.00000E+0,1.00000,0,  100.0,    13.000,     1.490,   1,1.0000
111212,'2 ',   476.170,     3.332,   280.970,  -182.789,1.04000,111207,   662.400, 0.00000E+0, 3.09900E-1, 0.00000E+0, 0.00000E+0,1.00000,1,  100.0,   552.000,   165.980,   1,1.0000
111213,'1 ',   235.500,     3.332,   138.960,   -70.380,1.04000,111207,   327.600, 0.00000E+0, 2.01300E-1, 0.00000E+0, 0.00000E+0,1.00000,1,  100.0,   273.000,    34.500,   1,1.0000
111214,'1 ',   145.780,     0.445,    86.020,   -58.457,1.04000,     0,   202.800, 0.00000E+0, 1.84600E-1, 0.00000E+0, 0.00000E+0,1.00000,1,  100.0,   169.000,    44.200,   1,1.0000
111215,'1 ',   145.780,     3.332,    86.020,   -49.067,1.04000,111207,   202.800, 0.00000E+0, 1.23300E-1, 0.00000E+0, 0.00000E+0,1.00000,1,  100.0,   169.000,    29.810,   1,1.0000
111217,'1 ',  1104.160,    65.299,   471.040,  -365.470,1.03900,111216,  1536.000, 0.00000E+0, 3.30200E-1, 0.00000E+0, 0.00000E+0,1.00000,1,  100.0,  1280.000,   201.180,   1,1.0000
111218,'1 ',  1104.160,    65.299,   471.040,  -382.864,1.03900,111216,  1536.000, 0.00000E+0, 2.07000E-1, 0.00000E+0, 0.00000E+0,1.00000,1,  100.0,  1280.000,   178.290,   1,1.0000
111220,'1 ',    60.570,    13.102,    41.230,   -21.319,1.04000,     0,    97.200, 0.00000E+0, 1.73400E-1, 0.00000E+0, 0.00000E+0,1.00000,1,  100.0,    81.000,    34.890,   1,1.0000
111221,'1 ',    69.870,    14.042,    41.230,   -21.949,1.04000,     0,    97.200, 0.00000E+0, 3.06600E-1, 0.00000E+0, 0.00000E+0,1.00000,1,  100.0,    81.000,    13.800,   1,1.0000
111223,'1 ',     0.000,     0.000,    15.270,   -10.323,1.04000,     0,    36.000, 0.00000E+0, 1.14200E-1, 0.00000E+0, 0.00000E+0,1.00000,0,  100.0,    30.000,     3.970,   1,1.0000
111231,'1 ',    64.700,    20.261,    38.170,   -25.114,1.04000,     0,    90.000, 0.00000E+0, 1.16300E-1, 0.00000E+0, 0.00000E+0,1.00000,1,  100.0,    75.000,    20.030,   1,1.0000
111232,'1 ',    31.270,    19.910,    38.170,   -25.036,1.04000,     0,    90.000, 0.00000E+0, 1.51000E-1, 0.00000E+0, 0.00000E+0,1.00000,1,  100.0,    75.000,     7.500,   1,1.0000
111233,'1 ',    64.700,    13.213,    38.170,   -22.403,1.04000,     0,    90.000, 0.00000E+0, 1.37800E-1, 0.00000E+0, 0.00000E+0,1.00000,1,  100.0,    75.000,    27.460,   1,1.0000
111234,'1 ',    43.080,    18.527,    38.170,   -20.496,1.04000,     0,    90.000, 0.00000E+0, 2.27300E-1, 0.00000E+0, 0.00000E+0,1.00000,1,  100.0,    75.000,    19.310,   1,1.0000
111237,'1 ',    30.860,    19.299,    21.630,   -10.778,1.04000,     0,    51.000, 0.00000E+0, 1.66900E-1, 0.00000E+0, 0.00000E+0,1.00000,1,  100.0,    42.500,    17.390,   1,1.0000
111241,'2 ',     0.000,     0.000,    14.250,    -8.077,1.04000,     0,    33.600, 0.00000E+0, 3.33300E-1, 0.00000E+0, 0.00000E+0,1.00000,0,  100.0,    28.000,    13.430,   1,1.0000
111242,'1 ',     0.000,     0.000,    14.250,    -9.251,1.04000,     0,    33.600, 0.00000E+0, 1.15100E-1, 0.00000E+0, 0.00000E+0,1.00000,0,  100.0,    28.000,    12.120,   1,1.0000
111242,'2 ',     0.000,     0.000,     9.160,    -5.818,1.04000,     0,    21.600, 0.00000E+0, 2.05700E-1, 0.00000E+0, 0.00000E+0,1.00000,0,  100.0,    18.000,     5.590,   1,1.0000
111243,'1 ',     0.000,     0.000,     9.160,    -5.587,1.04000,     0,    21.600, 0.00000E+0, 1.68500E-1, 0.00000E+0, 0.00000E+0,1.00000,0,  100.0,    18.000,     5.770,   1,1.0000
111243,'2 ',     0.000,     0.000,     9.160,    -6.074,1.04000,     0,    21.600, 0.00000E+0, 1.38600E-1, 0.00000E+0, 0.00000E+0,1.00000,0,  100.0,    18.000,     1.930,   1,1.0000
111244,'1 ',     0.000,     0.000,     9.160,    -6.128,1.04000,     0,    21.600, 0.00000E+0, 1.90200E-1, 0.00000E+0, 0.00000E+0,1.00000,0,  100.0,    18.000,     2.100,   1,1.0000
111246,'1 ',   112.760,    71.154,    71.260,   -39.109,1.04000,     0,   168.000, 0.00000E+0, 2.92000E-1, 0.00000E+0, 0.00000E+0,1.00000,1,  100.0,   140.000,    68.380,   1,1.0000
111247,'1 ',    77.640,    43.004,    45.810,   -22.962,1.04000,     0,   108.000, 0.00000E+0, 1.92100E-1, 0.00000E+0, 0.00000E+0,1.00000,1,  100.0,    90.000,    36.590,   1,1.0000
111248,'1 ',     0.000,     0.000,    16.290,    -9.566,1.04000,     0,    38.400, 0.00000E+0, 1.41700E-1, 0.00000E+0, 0.00000E+0,1.00000,0,  100.0,    32.000,    14.600,   1,1.0000
111249,'1 ',     0.000,     0.000,    16.290,   -10.334,1.04000,     0,    38.400, 0.00000E+0, 1.57000E-1, 0.00000E+0, 0.00000E+0,1.00000,0,  100.0,    32.000,    14.840,   1,1.0000
111249,'2 ',     0.000,     0.000,    16.290,    -9.324,1.04000,     0,    38.400, 0.00000E+0, 1.82600E-1, 0.00000E+0, 0.00000E+0,1.00000,0,  100.0,    32.000,    11.820,   1,1.0000
111251,'1 ',    56.930,    14.960,    33.590,   -22.393,1.04000,     0,    79.200, 0.00000E+0, 1.14200E-1, 0.00000E+0, 0.00000E+0,1.00000,1,  100.0,    66.000,    12.150,   1,1.0000
111252,'1 ',    41.150,    15.364,    33.590,   -20.063,1.04000,     0,    79.200, 0.00000E+0, 1.19100E-1, 0.00000E+0, 0.00000E+0,1.00000,1,  100.0,    66.000,    20.230,   1,1.0000
111253,'1 ',    38.910,    14.876,    31.560,   -19.857,1.04000,     0,    74.400, 0.00000E+0, 1.18800E-1, 0.00000E+0, 0.00000E+0,1.00000,1,  100.0,    62.000,    19.260,   1,1.0000
111254,'1 ',    59.520,    13.178,    35.120,   -18.258,1.04000,     0,    82.800, 0.00000E+0, 1.12200E-1, 0.00000E+0, 0.00000E+0,1.00000,1,  100.0,    69.000,    10.920,   1,1.0000
111260,'1 ',    47.800,    35.120,    35.120,   -22.979,1.04000,     0,    82.800, 0.00000E+0, 1.46300E-1, 0.00000E+0, 0.00000E+0,1.00000,1,  100.0,    69.000,    25.930,   1,1.0000
111262,'1 ',     0.000,     0.000,    13.040,   -12.052,1.04000,     0,    45.600, 0.00000E+0, 1.00000E+0, 0.00000E+0, 0.00000E+0,1.00000,0,  100.0,    38.000,    14.260,   1,1.0000
111264,'1 ',     0.000,     0.000,    17.810,    -9.490,1.04000,     0,    42.000, 0.00000E+0, 3.33700E-1, 0.00000E+0, 0.00000E+0,1.00000,0,  100.0,    35.000,     9.490,   1,1.0000
111266,'1 ',    20.670,    10.398,    16.830,   -15.714,1.04000,     0,    54.000, 0.00000E+0, 1.00000E+0, 0.00000E+0, 0.00000E+0,1.00000,1,  100.0,    45.000,     6.400,   1,1.0000
111266,'2 ',    25.370,    10.398,    14.240,   -13.582,1.04000,     0,    54.000, 0.00000E+0, 1.00000E+0, 0.00000E+0, 0.00000E+0,1.00000,1,  100.0,    45.000,    11.110,   1,1.0000
111267,'1 ',    64.700,    32.493,    38.170,   -20.633,1.04000,     0,    90.000, 0.00000E+0, 2.31600E-1, 0.00000E+0, 0.00000E+0,1.00000,1,  100.0,    75.000,    24.700,   1,1.0000
111268,'1 ',    60.380,    23.381,    35.630,   -18.377,1.04000,     0,    84.000, 0.00000E+0, 1.01700E-1, 0.00000E+0, 0.00000E+0,1.00000,1,  100.0,    70.000,    34.860,   1,1.0000
111270,'1 ',    96.970,    55.145,    61.130,   -37.476,1.03700,111269,   144.120, 0.00000E+0, 1.61700E-1, 0.00000E+0, 0.00000E+0,1.00000,1,  100.0,   120.100,    58.900,   1,1.0000
111271,'1 ',    52.290,     9.850,    35.120,   -17.447,1.04000,     0,    82.800, 0.00000E+0, 1.08500E-1, 0.00000E+0, 0.00000E+0,1.00000,1,  100.0,    69.000,    30.420,   1,1.0000
111272,'1 ',    60.210,     7.443,    35.530,   -23.448,1.04000,     0,    83.760, 0.00000E+0, 1.41100E-1, 0.00000E+0, 0.00000E+0,1.00000,1,  100.0,    69.800,    32.310,   1,1.0000
111273,'1 ',    33.420,    25.350,    35.530,   -24.082,1.04000,     0,    83.760, 0.00000E+0, 1.34600E-1, 0.00000E+0, 0.00000E+0,1.00000,1,  100.0,    69.800,    11.290,   1,1.0000
...